<?xml version="1.0" encoding="UTF-8"?>

<!-- generated on Sun May 26 09:59:26 2019 by SUMO netconvert Version 0.25.0
<?xml version="1.0" encoding="UTF-8"?>

<configuration xmlns:xsi="http://www.w3.org/2001/XMLSchema-instance" xsi:noNamespaceSchemaLocation="http://sumo.dlr.de/xsd/netconvertConfiguration.xsd">

    <input>
        <type-files value="/home/ubuntu/sumo-1.1.0/data/typemap/osmNetconvert.typ.xml"/>
        <osm-files value="map.osm-2.xml"/>
    </input>

    <output>
        <output-file value="map.net.xml"/>
    </output>

    <projection>
        <proj.utm value="true"/>
    </projection>

</configuration>
-->

<net version="0.25" xmlns:xsi="http://www.w3.org/2001/XMLSchema-instance" xsi:noNamespaceSchemaLocation="http://sumo.dlr.de/xsd/net_file.xsd">

    <location netOffset="-437700.75,-4417563.68" convBoundary="0.00,0.00,27574.45,9192.26" origBoundary="116.270888,39.889357,116.593644,39.989480" projParameter="+proj=utm +zone=50 +ellps=WGS84 +datum=WGS84 +units=m +no_defs"/>

    <type id="highway.bridleway" priority="1" numLanes="1" speed="2.78" allow="pedestrian" oneway="1" width="2.00"/>
    <type id="highway.bus_guideway" priority="1" numLanes="1" speed="27.78" allow="bus" oneway="1"/>
    <type id="highway.cycleway" priority="1" numLanes="1" speed="8.33" allow="bicycle" oneway="0" width="1.00"/>
    <type id="highway.footway" priority="1" numLanes="1" speed="2.78" allow="pedestrian" oneway="1" width="2.00"/>
    <type id="highway.ford" priority="1" numLanes="1" speed="2.78" allow="army" oneway="0"/>
    <type id="highway.living_street" priority="3" numLanes="1" speed="2.78" disallow="tram rail_urban rail rail_electric ship" oneway="0"/>
    <type id="highway.motorway" priority="13" numLanes="2" speed="44.44" allow="private emergency authority army vip passenger hov taxi bus coach delivery truck trailer motorcycle evehicle custom1 custom2" oneway="1"/>
    <type id="highway.motorway_link" priority="12" numLanes="1" speed="22.22" allow="private emergency authority army vip passenger hov taxi bus coach delivery truck trailer motorcycle evehicle custom1 custom2" oneway="1"/>
    <type id="highway.path" priority="1" numLanes="1" speed="2.78" allow="bicycle pedestrian" oneway="1" width="2.00"/>
    <type id="highway.pedestrian" priority="1" numLanes="1" speed="2.78" allow="pedestrian" oneway="1" width="2.00"/>
    <type id="highway.primary" priority="9" numLanes="2" speed="27.78" disallow="tram rail_urban rail rail_electric ship" oneway="0"/>
    <type id="highway.primary_link" priority="8" numLanes="1" speed="22.22" disallow="tram rail_urban rail rail_electric ship" oneway="0"/>
    <type id="highway.raceway" priority="14" numLanes="2" speed="83.33" allow="vip" oneway="0"/>
    <type id="highway.residential" priority="4" numLanes="1" speed="13.89" disallow="tram rail_urban rail rail_electric ship" oneway="0"/>
    <type id="highway.secondary" priority="7" numLanes="2" speed="27.78" disallow="tram rail_urban rail rail_electric ship" oneway="0"/>
    <type id="highway.secondary_link" priority="6" numLanes="1" speed="22.22" disallow="tram rail_urban rail rail_electric ship" oneway="0"/>
    <type id="highway.service" priority="2" numLanes="1" speed="5.56" allow="delivery bicycle pedestrian" oneway="0"/>
    <type id="highway.stairs" priority="1" numLanes="1" speed="1.39" allow="pedestrian" oneway="1" width="2.00"/>
    <type id="highway.step" priority="1" numLanes="1" speed="1.39" allow="pedestrian" oneway="1" width="2.00"/>
    <type id="highway.steps" priority="1" numLanes="1" speed="1.39" allow="pedestrian" oneway="1" width="2.00"/>
    <type id="highway.tertiary" priority="6" numLanes="1" speed="22.22" disallow="tram rail_urban rail rail_electric ship" oneway="0"/>
    <type id="highway.tertiary_link" priority="5" numLanes="1" speed="22.22" disallow="tram rail_urban rail rail_electric ship" oneway="0"/>
    <type id="highway.track" priority="1" numLanes="1" speed="5.56" disallow="tram rail_urban rail rail_electric ship" oneway="0"/>
    <type id="highway.trunk" priority="11" numLanes="2" speed="27.78" disallow="tram rail_urban rail rail_electric bicycle pedestrian ship" oneway="0"/>
    <type id="highway.trunk_link" priority="10" numLanes="1" speed="22.22" disallow="tram rail_urban rail rail_electric bicycle pedestrian ship" oneway="0"/>
    <type id="highway.unclassified" priority="5" numLanes="1" speed="13.89" disallow="tram rail_urban rail rail_electric ship" oneway="0"/>
    <type id="highway.unsurfaced" priority="1" numLanes="1" speed="8.33" disallow="tram rail_urban rail rail_electric ship" oneway="0"/>
    <type id="railway.light_rail" priority="15" numLanes="1" speed="27.78" allow="rail_urban" oneway="1"/>
    <type id="railway.preserved" priority="15" numLanes="1" speed="27.78" allow="rail" oneway="1"/>
    <type id="railway.rail" priority="15" numLanes="1" speed="83.33" allow="rail rail_electric" oneway="1"/>
    <type id="railway.subway" priority="15" numLanes="1" speed="27.78" allow="rail_urban" oneway="1"/>
    <type id="railway.tram" priority="15" numLanes="1" speed="13.89" allow="tram" oneway="1"/>

    <edge id=":1038275228_0" function="internal">
        <lane id=":1038275228_0_0" index="0" allow="pedestrian" speed="2.78" length="3.07" width="2.00" shape="11450.41,638.98 11449.87,639.75 11449.34,640.00 11448.82,639.73 11448.31,638.93"/>
    </edge>
    <edge id=":1038275237_0" function="internal">
        <lane id=":1038275237_0_0" index="0" disallow="tram rail_urban rail rail_electric ship" speed="22.22" length="5.17" shape="12021.43,286.35 12021.19,285.04 12020.55,284.08 12019.51,283.45 12018.07,283.17"/>
    </edge>
    <edge id=":1038275237_1" function="internal">
        <lane id=":1038275237_1_0" index="0" disallow="tram rail_urban rail rail_electric ship" speed="22.22" length="6.25" shape="12021.43,286.35 12021.21,280.11"/>
    </edge>
    <edge id=":1038275237_2" function="internal">
        <lane id=":1038275237_2_0" index="0" disallow="tram rail_urban rail rail_electric ship" speed="22.22" length="2.41" shape="12021.43,286.35 12022.23,285.09 12023.04,284.66"/>
    </edge>
    <edge id=":1038275237_6" function="internal">
        <lane id=":1038275237_6_0" index="0" speed="22.22" length="2.41" shape="12023.04,284.66 12023.87,285.05 12024.73,286.26"/>
    </edge>
    <edge id=":1038275237_3" function="internal">
        <lane id=":1038275237_3_0" index="0" disallow="tram rail_urban rail rail_electric ship" speed="22.22" length="6.31" shape="12024.50,279.96 12024.73,286.26"/>
    </edge>
    <edge id=":1038275237_4" function="internal">
        <lane id=":1038275237_4_0" index="0" disallow="tram rail_urban rail rail_electric ship" speed="22.22" length="3.20" shape="12024.50,279.96 12024.16,281.53 12022.98,282.59"/>
    </edge>
    <edge id=":1038275237_5" function="internal">
        <lane id=":1038275237_5_0" index="0" disallow="tram rail_urban rail rail_electric ship" speed="22.22" length="2.41" shape="12024.50,279.96 12023.73,281.23 12022.93,281.68"/>
    </edge>
    <edge id=":1038275237_7" function="internal">
        <lane id=":1038275237_7_0" index="0" speed="22.22" length="4.98" shape="12022.98,282.59 12020.95,283.14 12018.07,283.17"/>
    </edge>
    <edge id=":1038275237_8" function="internal">
        <lane id=":1038275237_8_0" index="0" speed="22.22" length="2.41" shape="12022.93,281.68 12022.08,281.31 12021.21,280.11"/>
    </edge>
    <edge id=":1038275243_0" function="internal">
        <lane id=":1038275243_0_0" index="0" allow="delivery bicycle pedestrian" speed="5.56" length="8.22" shape="11963.66,242.29 11955.83,239.78"/>
    </edge>
    <edge id=":1038275243_1" function="internal">
        <lane id=":1038275243_1_0" index="0" disallow="tram rail_urban rail rail_electric ship" speed="9.73" length="9.83" shape="11963.66,242.29 11962.00,240.91 11960.84,239.02 11960.19,236.59 11960.05,233.65"/>
    </edge>
    <edge id=":1038275243_2" function="internal">
        <lane id=":1038275243_2_0" index="0" allow="delivery bicycle pedestrian" speed="5.56" length="4.82" shape="11963.66,242.29 11963.01,240.96 11963.06,240.03 11963.84,239.53 11965.32,239.44"/>
    </edge>
    <edge id=":1038275243_3" function="internal">
        <lane id=":1038275243_3_0" index="0" allow="delivery bicycle pedestrian" speed="9.73" length="6.28" shape="11963.35,233.76 11963.41,235.78 11963.77,237.40 11964.40,238.62 11965.32,239.44"/>
    </edge>
    <edge id=":1038275243_4" function="internal">
        <lane id=":1038275243_4_0" index="0" allow="delivery bicycle pedestrian" speed="9.73" length="10.85" shape="11963.35,233.76 11962.80,236.38 11961.37,238.25 11959.04,239.38 11955.83,239.78"/>
    </edge>
    <edge id=":1038275243_5" function="internal">
        <lane id=":1038275243_5_0" index="0" disallow="tram rail_urban rail rail_electric ship" speed="13.89" length="4.82" shape="11963.35,233.76 11962.48,234.97 11961.64,235.36 11960.83,234.91 11960.05,233.65"/>
    </edge>
    <edge id=":1038275243_6" function="internal">
        <lane id=":1038275243_6_0" index="0" disallow="tram rail_urban rail rail_electric ship" speed="9.73" length="5.05" shape="11956.57,236.47 11958.06,236.29 11959.13,235.76 11959.80,234.88 11960.05,233.65"/>
    </edge>
    <edge id=":1038275243_7" function="internal">
        <lane id=":1038275243_7_0" index="0" allow="delivery bicycle pedestrian" speed="5.56" length="9.24" shape="11956.57,236.47 11965.32,239.44"/>
    </edge>
    <edge id=":1038275243_8" function="internal">
        <lane id=":1038275243_8_0" index="0" allow="delivery bicycle pedestrian" speed="5.56" length="4.94" shape="11956.57,236.47 11957.62,237.57 11957.85,238.49 11957.25,239.23 11955.83,239.78"/>
    </edge>
    <edge id=":1038275249_0" function="internal">
        <lane id=":1038275249_0_0" index="0" allow="pedestrian" speed="2.78" length="3.07" width="2.00" shape="11449.66,580.27 11450.20,579.50 11450.73,579.25 11451.25,579.52 11451.76,580.32"/>
    </edge>
    <edge id=":1362315797_0" function="internal">
        <lane id=":1362315797_0_0" index="0" disallow="tram rail_urban rail rail_electric ship" speed="16.67" length="8.36" shape="12805.16,236.28 12802.93,237.48 12801.29,238.87 12800.25,240.44 12799.81,242.18"/>
    </edge>
    <edge id=":1362315797_1" function="internal">
        <lane id=":1362315797_1_0" index="0" allow="delivery bicycle pedestrian" speed="5.56" length="12.25" shape="12805.16,236.28 12802.08,237.55 12799.38,238.35 12796.61,238.67 12793.31,238.52"/>
    </edge>
    <edge id=":1362315797_2" function="internal">
        <lane id=":1362315797_2_0" index="0" allow="delivery bicycle pedestrian" speed="5.56" length="4.82" shape="12805.16,236.28 12803.70,236.02 12802.99,235.43 12803.03,234.51 12803.83,233.26"/>
    </edge>
    <edge id=":1362315797_3" function="internal">
        <lane id=":1362315797_3_0" index="0" allow="delivery bicycle pedestrian" speed="16.67" length="5.62" shape="12800.23,230.89 12800.44,232.52 12801.11,233.47 12802.24,233.71 12803.83,233.26"/>
    </edge>
    <edge id=":1362315797_4" function="internal">
        <lane id=":1362315797_4_0" index="0" disallow="tram rail_urban rail rail_electric ship" speed="27.78" length="11.19" shape="12800.23,230.89 12800.20,234.24 12800.17,236.54 12800.05,238.83 12799.81,242.18"/>
        <lane id=":1362315797_4_1" index="1" disallow="tram rail_urban rail rail_electric ship" speed="27.78" length="11.19" shape="12796.93,230.86 12796.91,234.15 12796.87,236.40 12796.76,238.65 12796.52,241.92"/>
    </edge>
    <edge id=":1362315797_6" function="internal">
        <lane id=":1362315797_6_0" index="0" allow="delivery bicycle pedestrian" speed="16.67" length="9.41" shape="12796.93,230.86 12796.68,234.35 12795.99,236.79 12794.87,238.18 12793.31,238.52"/>
    </edge>
    <edge id=":1362315797_7" function="internal">
        <lane id=":1362315797_7_0" index="0" allow="delivery bicycle pedestrian" speed="5.56" length="10.58" shape="12793.65,235.23 12796.69,235.43 12798.89,235.20 12801.01,234.49 12803.83,233.26"/>
    </edge>
    <edge id=":1362315797_8" function="internal">
        <lane id=":1362315797_8_0" index="0" disallow="tram rail_urban rail rail_electric ship" speed="16.67" length="8.05" shape="12793.65,235.23 12795.09,235.78 12796.05,237.08 12796.52,239.13 12796.52,241.92"/>
    </edge>
    <edge id=":1362315797_9" function="internal">
        <lane id=":1362315797_9_0" index="0" allow="delivery bicycle pedestrian" speed="5.56" length="4.82" shape="12793.65,235.23 12794.79,236.18 12795.12,237.05 12794.62,237.82 12793.31,238.52"/>
    </edge>
    <edge id=":1362315798_0" function="internal">
        <lane id=":1362315798_0_0" index="0" disallow="tram rail_urban rail rail_electric ship" speed="20.84" length="5.34" shape="12798.66,326.48 12797.12,326.71 12795.99,327.29 12795.28,328.24 12794.99,329.54"/>
    </edge>
    <edge id=":1362315798_1" function="internal">
        <lane id=":1362315798_1_0" index="0" disallow="tram rail_urban rail rail_electric ship" speed="13.89" length="4.82" shape="12798.66,326.48 12797.40,325.69 12796.97,324.88 12797.36,324.04 12798.58,323.19"/>
    </edge>
    <edge id=":1362315798_2" function="internal">
        <lane id=":1362315798_2_0" index="0" disallow="tram rail_urban rail rail_electric ship" speed="20.84" length="5.10" shape="12795.52,320.04 12795.65,321.45 12796.20,322.44 12797.17,323.02 12798.58,323.19"/>
    </edge>
    <edge id=":1362315798_3" function="internal">
        <lane id=":1362315798_3_0" index="0" disallow="tram rail_urban rail rail_electric ship" speed="27.78" length="9.50" shape="12795.52,320.04 12794.99,329.54"/>
        <lane id=":1362315798_3_1" index="1" disallow="tram rail_urban rail rail_electric ship" speed="27.78" length="9.50" shape="12792.22,319.87 12791.70,329.34"/>
    </edge>
    <edge id=":1362315799_0" function="internal">
        <lane id=":1362315799_0_0" index="0" disallow="tram rail_urban rail rail_electric ship" speed="20.84" length="5.79" shape="12791.62,444.08 12790.16,444.31 12789.11,445.02 12788.45,446.20 12788.20,447.87"/>
    </edge>
    <edge id=":1362315799_1" function="internal">
        <lane id=":1362315799_1_0" index="0" disallow="tram rail_urban rail rail_electric ship" speed="13.89" length="10.06" shape="12791.62,444.08 12788.64,444.08 12786.59,444.17 12784.55,444.42 12781.61,444.88"/>
    </edge>
    <edge id=":1362315799_2" function="internal">
        <lane id=":1362315799_2_0" index="0" disallow="tram rail_urban rail rail_electric ship" speed="13.89" length="2.41" shape="12791.62,444.08 12790.39,443.25 12789.98,442.42"/>
    </edge>
    <edge id=":1362315799_10" function="internal">
        <lane id=":1362315799_10_0" index="0" speed="13.89" length="2.41" shape="12789.98,442.42 12790.40,441.60 12791.64,440.78"/>
    </edge>
    <edge id=":1362315799_3" function="internal">
        <lane id=":1362315799_3_0" index="0" disallow="tram rail_urban rail rail_electric ship" speed="20.84" length="5.06" shape="12788.64,437.58 12788.76,438.97 12789.30,439.97 12790.26,440.57 12791.64,440.78"/>
    </edge>
    <edge id=":1362315799_4" function="internal">
        <lane id=":1362315799_4_0" index="0" disallow="tram rail_urban rail rail_electric ship" speed="27.78" length="10.35" shape="12788.64,437.58 12788.47,440.63 12788.36,442.72 12788.29,444.81 12788.20,447.87"/>
        <lane id=":1362315799_4_1" index="1" disallow="tram rail_urban rail rail_electric ship" speed="27.78" length="10.35" shape="12785.35,437.38 12785.17,440.47 12785.07,442.58 12784.99,444.69 12784.90,447.77"/>
    </edge>
    <edge id=":1362315799_6" function="internal">
        <lane id=":1362315799_6_0" index="0" disallow="tram rail_urban rail rail_electric ship" speed="20.84" length="8.98" shape="12785.35,437.38 12784.96,440.46 12784.21,442.74 12783.09,444.21 12781.61,444.88"/>
    </edge>
    <edge id=":1362315799_7" function="internal">
        <lane id=":1362315799_7_0" index="0" disallow="tram rail_urban rail rail_electric ship" speed="13.89" length="10.61" shape="12781.08,441.63 12784.11,441.15 12786.34,440.89 12788.58,440.79 12791.64,440.78"/>
    </edge>
    <edge id=":1362315799_8" function="internal">
        <lane id=":1362315799_8_0" index="0" disallow="tram rail_urban rail rail_electric ship" speed="20.84" length="3.37" shape="12781.08,441.63 12782.83,441.77 12784.05,442.84"/>
    </edge>
    <edge id=":1362315799_9" function="internal">
        <lane id=":1362315799_9_0" index="0" disallow="tram rail_urban rail rail_electric ship" speed="13.89" length="2.41" shape="12781.08,441.63 12782.44,442.24 12782.98,442.99"/>
    </edge>
    <edge id=":1362315799_11" function="internal">
        <lane id=":1362315799_11_0" index="0" speed="20.84" length="5.05" shape="12784.05,442.84 12784.74,444.84 12784.90,447.77"/>
    </edge>
    <edge id=":1362315799_12" function="internal">
        <lane id=":1362315799_12_0" index="0" speed="13.89" length="2.41" shape="12782.98,442.99 12782.70,443.87 12781.61,444.88"/>
    </edge>
    <edge id=":1362315800_0" function="internal">
        <lane id=":1362315800_0_0" index="0" disallow="tram rail_urban rail rail_electric ship" speed="20.84" length="5.17" shape="12789.20,524.00 12787.74,524.20 12786.69,524.77 12786.03,525.72 12785.76,527.04"/>
    </edge>
    <edge id=":1362315800_1" function="internal">
        <lane id=":1362315800_1_0" index="0" disallow="tram rail_urban rail rail_electric ship" speed="13.89" length="2.69" shape="12789.20,524.00 12787.95,523.18 12787.53,522.36 12787.66,522.11"/>
    </edge>
    <edge id=":1362315800_5" function="internal">
        <lane id=":1362315800_5_0" index="0" speed="13.89" length="2.13" shape="12787.66,522.11 12787.94,521.53 12789.17,520.70"/>
    </edge>
    <edge id=":1362315800_2" function="internal">
        <lane id=":1362315800_2_0" index="0" disallow="tram rail_urban rail rail_electric ship" speed="20.84" length="5.04" shape="12786.11,517.56 12786.26,518.94 12786.83,519.92 12787.80,520.51 12789.17,520.70"/>
    </edge>
    <edge id=":1362315800_3" function="internal">
        <lane id=":1362315800_3_0" index="0" disallow="tram rail_urban rail rail_electric ship" speed="27.78" length="9.46" shape="12786.11,517.56 12785.76,527.04"/>
        <lane id=":1362315800_3_1" index="1" disallow="tram rail_urban rail rail_electric ship" speed="27.78" length="9.46" shape="12782.81,517.46 12782.47,526.90"/>
    </edge>
    <edge id=":1362315801_0" function="internal">
        <lane id=":1362315801_0_0" index="0" disallow="tram rail_urban rail rail_electric ship" speed="20.84" length="5.66" shape="12782.47,683.61 12780.97,683.87 12779.89,684.55 12779.22,685.67 12778.97,687.21"/>
    </edge>
    <edge id=":1362315801_1" function="internal">
        <lane id=":1362315801_1_0" index="0" disallow="tram rail_urban rail rail_electric ship" speed="13.89" length="9.98" shape="12782.47,683.61 12772.50,684.09"/>
    </edge>
    <edge id=":1362315801_2" function="internal">
        <lane id=":1362315801_2_0" index="0" disallow="tram rail_urban rail rail_electric ship" speed="13.89" length="4.82" shape="12782.47,683.61 12781.21,682.82 12780.78,682.00 12781.17,681.17 12782.39,680.31"/>
    </edge>
    <edge id=":1362315801_3" function="internal">
        <lane id=":1362315801_3_0" index="0" disallow="tram rail_urban rail rail_electric ship" speed="20.84" length="5.08" shape="12779.32,677.18 12779.46,678.58 12780.02,679.57 12781.00,680.15 12782.39,680.31"/>
    </edge>
    <edge id=":1362315801_4" function="internal">
        <lane id=":1362315801_4_0" index="0" disallow="tram rail_urban rail rail_electric ship" speed="27.78" length="10.06" shape="12779.32,677.18 12779.20,680.16 12779.12,682.20 12779.05,684.23 12778.97,687.21"/>
        <lane id=":1362315801_4_1" index="1" disallow="tram rail_urban rail rail_electric ship" speed="27.78" length="10.06" shape="12776.02,677.04 12775.90,680.03 12775.82,682.08 12775.75,684.13 12775.67,687.12"/>
    </edge>
    <edge id=":1362315801_6" function="internal">
        <lane id=":1362315801_6_0" index="0" disallow="tram rail_urban rail rail_electric ship" speed="20.84" length="8.54" shape="12776.02,677.04 12775.69,680.04 12775.00,682.21 12773.93,683.56 12772.50,684.09"/>
    </edge>
    <edge id=":1362315801_7" function="internal">
        <lane id=":1362315801_7_0" index="0" disallow="tram rail_urban rail rail_electric ship" speed="13.89" length="10.14" shape="12772.27,680.79 12775.25,680.59 12777.33,680.46 12779.40,680.39 12782.39,680.31"/>
    </edge>
    <edge id=":1362315801_8" function="internal">
        <lane id=":1362315801_8_0" index="0" disallow="tram rail_urban rail rail_electric ship" speed="20.84" length="8.14" shape="12772.27,680.79 12773.82,681.09 12774.91,682.25 12775.52,684.26 12775.67,687.12"/>
    </edge>
    <edge id=":1362315801_9" function="internal">
        <lane id=":1362315801_9_0" index="0" disallow="tram rail_urban rail rail_electric ship" speed="13.89" length="4.82" shape="12772.27,680.79 12773.56,681.53 12774.03,682.32 12773.68,683.17 12772.50,684.09"/>
    </edge>
    <edge id=":1362315802_0" function="internal">
        <lane id=":1362315802_0_0" index="0" allow="bicycle" speed="18.05" length="5.21" width="1.00" shape="12776.06,838.07 12774.69,838.29 12774.15,838.94 12774.43,840.02 12775.53,841.52"/>
    </edge>
    <edge id=":1362315802_1" function="internal">
        <lane id=":1362315802_1_0" index="0" disallow="tram rail_urban rail rail_electric ship" speed="27.78" length="6.12" shape="12776.06,838.07 12774.56,838.33 12773.47,839.10 12772.78,840.38 12772.51,842.17"/>
    </edge>
    <edge id=":1362315802_2" function="internal">
        <lane id=":1362315802_2_0" index="0" disallow="tram rail_urban rail rail_electric ship" speed="27.78" length="10.36" shape="12776.06,838.07 12772.74,838.01 12770.46,837.66 12768.31,836.82 12765.35,835.29"/>
        <lane id=":1362315802_2_1" index="1" disallow="tram rail_urban rail rail_electric ship" speed="27.78" length="10.36" shape="12776.04,834.77 12766.90,832.37"/>
    </edge>
    <edge id=":1362315802_4" function="internal">
        <lane id=":1362315802_4_0" index="0" allow="bicycle" speed="18.05" length="12.18" width="1.00" shape="12772.96,830.06 12772.80,833.80 12772.92,836.58 12773.70,838.97 12775.53,841.52"/>
    </edge>
    <edge id=":1362315802_5" function="internal">
        <lane id=":1362315802_5_0" index="0" disallow="tram rail_urban rail rail_electric ship" speed="27.78" length="12.14" shape="12772.96,830.06 12772.82,833.65 12772.72,836.11 12772.63,838.57 12772.51,842.17"/>
        <lane id=":1362315802_5_1" index="1" disallow="tram rail_urban rail rail_electric ship" speed="27.78" length="12.14" shape="12769.67,829.92 12769.52,833.52 12769.42,835.99 12769.33,838.46 12769.21,842.06"/>
    </edge>
    <edge id=":1362315802_7" function="internal">
        <lane id=":1362315802_7_0" index="0" disallow="tram rail_urban rail rail_electric ship" speed="27.78" length="4.80" shape="12769.67,829.92 12769.43,831.51 12768.90,832.45 12768.05,832.74 12766.90,832.37"/>
    </edge>
    <edge id=":1362315803_0" function="internal">
        <lane id=":1362315803_0_0" index="0" disallow="tram rail_urban rail rail_electric ship" speed="20.84" length="5.10" shape="12769.60,997.50 12768.19,997.67 12767.16,998.23 12766.52,999.18 12766.27,1000.52"/>
    </edge>
    <edge id=":1362315803_1" function="internal">
        <lane id=":1362315803_1_0" index="0" disallow="tram rail_urban rail rail_electric ship" speed="13.89" length="4.82" shape="12769.60,997.50 12768.38,996.66 12767.98,995.83 12768.40,995.01 12769.65,994.20"/>
    </edge>
    <edge id=":1362315803_2" function="internal">
        <lane id=":1362315803_2_0" index="0" disallow="tram rail_urban rail rail_electric ship" speed="20.84" length="5.03" shape="12766.64,991.01 12766.78,992.39 12767.33,993.38 12768.29,993.98 12769.65,994.20"/>
    </edge>
    <edge id=":1362315803_3" function="internal">
        <lane id=":1362315803_3_0" index="0" disallow="tram rail_urban rail rail_electric ship" speed="27.78" length="9.51" shape="12766.64,991.01 12766.27,1000.52"/>
        <lane id=":1362315803_3_1" index="1" disallow="tram rail_urban rail rail_electric ship" speed="27.78" length="9.51" shape="12763.35,990.88 12762.97,1000.39"/>
    </edge>
    <edge id=":1362315804_0" function="internal">
        <lane id=":1362315804_0_0" index="0" disallow="tram rail_urban rail rail_electric ship" speed="20.84" length="5.31" shape="12760.99,1229.46 12759.58,1229.66 12758.55,1230.27 12757.91,1231.30 12757.66,1232.74"/>
    </edge>
    <edge id=":1362315804_1" function="internal">
        <lane id=":1362315804_1_0" index="0" disallow="tram rail_urban rail rail_electric ship" speed="13.89" length="9.71" shape="12760.99,1229.46 12751.28,1229.51"/>
    </edge>
    <edge id=":1362315804_2" function="internal">
        <lane id=":1362315804_2_0" index="0" disallow="tram rail_urban rail rail_electric ship" speed="13.89" length="2.41" shape="12760.99,1229.46 12759.77,1228.63 12759.36,1227.80"/>
    </edge>
    <edge id=":1362315804_10" function="internal">
        <lane id=":1362315804_10_0" index="0" speed="13.89" length="2.41" shape="12759.36,1227.80 12759.78,1226.98 12761.03,1226.16"/>
    </edge>
    <edge id=":1362315804_3" function="internal">
        <lane id=":1362315804_3_0" index="0" disallow="tram rail_urban rail rail_electric ship" speed="20.84" length="5.03" shape="12758.00,1222.99 12758.15,1224.37 12758.70,1225.36 12759.66,1225.95 12761.03,1226.16"/>
    </edge>
    <edge id=":1362315804_4" function="internal">
        <lane id=":1362315804_4_0" index="0" disallow="tram rail_urban rail rail_electric ship" speed="27.78" length="9.77" shape="12758.00,1222.99 12757.66,1232.74"/>
        <lane id=":1362315804_4_1" index="1" disallow="tram rail_urban rail rail_electric ship" speed="27.78" length="9.77" shape="12754.70,1222.87 12754.36,1232.63"/>
    </edge>
    <edge id=":1362315804_6" function="internal">
        <lane id=":1362315804_6_0" index="0" disallow="tram rail_urban rail rail_electric ship" speed="20.84" length="8.18" shape="12754.70,1222.87 12754.40,1225.75 12753.73,1227.82 12752.69,1229.07 12751.28,1229.51"/>
    </edge>
    <edge id=":1362315804_7" function="internal">
        <lane id=":1362315804_7_0" index="0" disallow="tram rail_urban rail rail_electric ship" speed="13.89" length="9.81" shape="12751.21,1226.21 12761.03,1226.16"/>
    </edge>
    <edge id=":1362315804_8" function="internal">
        <lane id=":1362315804_8_0" index="0" disallow="tram rail_urban rail rail_electric ship" speed="20.84" length="3.19" shape="12751.21,1226.21 12752.67,1226.59 12753.68,1227.79 12753.71,1227.90"/>
    </edge>
    <edge id=":1362315804_9" function="internal">
        <lane id=":1362315804_9_0" index="0" disallow="tram rail_urban rail rail_electric ship" speed="13.89" length="2.41" shape="12751.21,1226.21 12752.47,1227.01 12752.90,1227.83"/>
    </edge>
    <edge id=":1362315804_11" function="internal">
        <lane id=":1362315804_11_0" index="0" speed="20.84" length="4.81" shape="12753.71,1227.90 12754.24,1229.80 12754.36,1232.63"/>
    </edge>
    <edge id=":1362315804_12" function="internal">
        <lane id=":1362315804_12_0" index="0" speed="13.89" length="2.41" shape="12752.90,1227.83 12752.50,1228.66 12751.28,1229.51"/>
    </edge>
    <edge id=":1362315806_0" function="internal">
        <lane id=":1362315806_0_0" index="0" disallow="tram rail_urban rail rail_electric ship" speed="20.84" length="5.22" shape="12753.40,1463.31 12751.93,1463.54 12750.87,1464.14 12750.23,1465.10 12750.00,1466.44"/>
    </edge>
    <edge id=":1362315806_1" function="internal">
        <lane id=":1362315806_1_0" index="0" disallow="tram rail_urban rail rail_electric ship" speed="13.89" length="4.82" shape="12753.40,1463.31 12752.14,1462.52 12751.71,1461.71 12752.10,1460.87 12753.31,1460.01"/>
    </edge>
    <edge id=":1362315806_2" function="internal">
        <lane id=":1362315806_2_0" index="0" disallow="tram rail_urban rail rail_electric ship" speed="20.84" length="5.07" shape="12750.22,1456.90 12750.38,1458.29 12750.94,1459.28 12751.92,1459.85 12753.31,1460.01"/>
    </edge>
    <edge id=":1362315806_3" function="internal">
        <lane id=":1362315806_3_0" index="0" disallow="tram rail_urban rail rail_electric ship" speed="27.78" length="9.57" shape="12750.22,1456.90 12750.00,1466.44"/>
        <lane id=":1362315806_3_1" index="1" disallow="tram rail_urban rail rail_electric ship" speed="27.78" length="9.57" shape="12746.93,1456.79 12746.70,1466.39"/>
    </edge>
    <edge id=":1362315807_0" function="internal">
        <lane id=":1362315807_0_0" index="0" disallow="tram rail_urban rail rail_electric ship" speed="20.84" length="5.27" shape="12752.30,1540.34 12750.83,1540.57 12749.77,1541.18 12749.11,1542.16 12748.85,1543.52"/>
    </edge>
    <edge id=":1362315807_1" function="internal">
        <lane id=":1362315807_1_0" index="0" disallow="tram rail_urban rail rail_electric ship" speed="13.89" length="9.97" shape="12752.30,1540.34 12742.33,1540.11"/>
    </edge>
    <edge id=":1362315807_2" function="internal">
        <lane id=":1362315807_2_0" index="0" disallow="tram rail_urban rail rail_electric ship" speed="13.89" length="2.55" shape="12752.30,1540.34 12751.04,1539.55 12750.60,1538.73 12750.66,1538.60"/>
    </edge>
    <edge id=":1362315807_10" function="internal">
        <lane id=":1362315807_10_0" index="0" speed="13.89" length="2.27" shape="12750.66,1538.60 12751.00,1537.90 12752.21,1537.04"/>
    </edge>
    <edge id=":1362315807_3" function="internal">
        <lane id=":1362315807_3_0" index="0" disallow="tram rail_urban rail rail_electric ship" speed="20.84" length="5.10" shape="12749.09,1533.90 12749.27,1535.30 12749.85,1536.29 12750.83,1536.87 12752.21,1537.04"/>
    </edge>
    <edge id=":1362315807_4" function="internal">